*Heading
** Job name: slucaj1 Model name: Model-1
** Generated by: Abaqus/CAE 6.14-5
*Preprint, echo=NO, model=NO, history=NO, contact=NO
**
** PARTS
**
*Part, name=Crane
*End Part
**  
**
** ASSEMBLY
**
*Assembly, name=Assembly
**  
*Instance, name=Crane-1, part=Crane
*Node
      1,           2.,           0.,           1.
      2,           2.,          0.5,          0.5
      3,           2.,           1.,           0.
      4,          2.5,           1.,           1.
      5,           3.,           1.,           0.
      6,           4.,           1.,           0.
      7,          3.5,           1.,           1.
      8,           4.,           1.,           1.
      9,           4.,          0.5,          0.5
     10,           4.,           0.,           0.
     11,           5.,           0.,           0.
     12,           5.,          0.5,          0.5
     13,           5.,           0.,           1.
     14,          5.5,           0.,           1.
     15,          4.5,           0.,           1.
     16,          2.5,           0.,           1.
     17,           2.,           0.,           0.
     18,          1.5,           0.,           1.
     19,           2.,           1.,           1.
     20,           1.,           1.,           0.
** ... 555 like lines cut
*Element, type=B32
1,   1, 248,  84
2,  84, 249,   2
3,   2, 250,  85
4,  85, 251,   3
5,   4, 252,  86
6,  86, 253,   3
7,   5, 254,  87
8,  87, 255,   4
 9,   5, 256,  88
10,  88, 257,   6
11,   6, 258,  89
12,  89, 259,   7
13,   8, 260,  90
14,  90, 261,   7
15,   8, 262,  91
16,  91, 263,   9
17,   9, 264,  92
18,  92, 265,  10
19,  11, 266,  93
20,  93, 267,  10
** ... 308 like lines cut
*Nset, nset=Wire-3-Set-1
   1,   2,   3,   5,   6,   8,   9,  10,  11,  12,  13,  17,  19,  20,  22,  23
  24,  25,  27,  28,  30,  31,  32,  33,  34,  36,  37,  38,  40,  41,  42,  43
  44,  47,  49,  50,  52,  53,  55,  57,  58,  59,  60,  62,  63,  64,  65,  66
  67,  71,  72,  73,  74,  76,  77,  78,  79,  80,  81,  84,  85,  91,  92,  94
  95, 104, 110, 111, 113, 117, 123, 129, 136, 137, 138, 144, 147, 151, 152, 154
 155, 163, 164, 173, 174, 176, 180, 181, 188, 189, 195, 196, 201, 202, 204, 205
 213, 219, 223, 224, 234, 235, 244, 246, 247, 248, 249, 250, 251, 262, 263, 264
 265, 268, 269, 270, 271, 288, 289, 300, 301, 302, 303, 306, 307, 314, 315, 326
 327, 338, 339, 352, 353, 354, 355, 356, 357, 368, 369, 374, 375, 382, 383, 384
 385, 388, 389, 390, 391, 406, 407, 408, 409, 426, 427, 428, 429, 432, 433, 440
 441, 442, 443, 456, 457, 458, 459, 470, 471, 472, 473, 482, 483, 484, 485, 488
 489, 490, 491, 506, 507, 518, 519, 526, 527, 528, 529, 548, 549, 550, 551, 568
 569, 572, 573, 574, 575
*Elset, elset=Wire-3-Set-1
   1,   2,   3,   4,  15,  16,  17,  18,  21,  22,  23,  24,  41,  42,  53,  54
  55,  56,  59,  60,  67,  68,  79,  80,  91,  92, 105, 106, 107, 108, 109, 110
 121, 122, 127, 128, 135, 136, 137, 138, 141, 142, 143, 144, 159, 160, 161, 162
 179, 180, 181, 182, 185, 186, 193, 194, 195, 196, 209, 210, 211, 212, 223, 224
 225, 226, 235, 236, 237, 238, 241, 242, 243, 244, 259, 260, 271, 272, 279, 280
 281, 282, 301, 302, 303, 304, 321, 322, 325, 326, 327, 328
*Nset, nset=Set-2
   1,   3,   4,   5,   6,   7,   8,  10,  11,  13,  14,  15,  16,  17,  18,  19
  20,  21,  22,  24,  25,  26,  27,  28,  29,  30,  31,  32,  34,  35,  36,  37
  38,  39,  40,  42,  44,  45,  46,  47,  48,  49,  50,  51,  52,  53,  54,  55
  56,  57,  59,  60,  61,  62,  64,  65,  67,  68,  69,  70,  71,  72,  73,  74
  75,  76,  77,  78,  80,  81,  82,  83,  88,  90,  93,  96,  99, 100, 103, 105
 106, 108, 109, 112, 114, 116, 118, 120, 121, 124, 127, 128, 132, 133, 135, 139
 141, 143, 145, 148, 150, 153, 156, 159, 160, 162, 167, 168, 170, 171, 172, 176
 177, 179, 182, 184, 187, 190, 192, 193, 197, 200, 203, 206, 209, 212, 214, 215
 216, 218, 220, 222, 225, 227, 229, 230, 232, 233, 236, 238, 241, 242, 245, 247
 256, 257, 260, 261, 266, 267, 272, 273, 278, 279, 280, 281, 286, 287, 290, 291
 292, 293, 296, 297, 298, 299, 304, 305, 308, 309, 312, 313, 316, 317, 320, 321
 322, 323, 328, 329, 334, 335, 336, 337, 344, 345, 346, 347, 350, 351, 358, 359
 362, 363, 366, 367, 370, 371, 376, 377, 380, 381, 386, 387, 392, 393, 398, 399
 400, 401, 404, 405, 414, 415, 416, 417, 420, 421, 422, 423, 424, 425, 432, 433
 434, 435, 438, 439, 444, 445, 448, 449, 454, 455, 460, 461, 464, 465, 466, 467
 474, 475, 480, 481, 486, 487, 492, 493, 498, 499, 504, 505, 508, 509, 510, 511
 512, 513, 516, 517, 520, 521, 524, 525, 530, 531, 534, 535, 538, 539, 540, 541
 544, 545, 546, 547, 552, 553, 556, 557, 562, 563, 564, 565, 570, 571, 574, 575
*Elset, elset=Set-2
   9,  10,  13,  14,  19,  20,  25,  26,  31,  32,  33,  34,  39,  40,  43,  44
  45,  46,  49,  50,  51,  52,  57,  58,  61,  62,  65,  66,  69,  70,  73,  74
  75,  76,  81,  82,  87,  88,  89,  90,  97,  98,  99, 100, 103, 104, 111, 112
 115, 116, 119, 120, 123, 124, 129, 130, 133, 134, 139, 140, 145, 146, 151, 152
 153, 154, 157, 158, 167, 168, 169, 170, 173, 174, 175, 176, 177, 178, 185, 186
 187, 188, 191, 192, 197, 198, 201, 202, 207, 208, 213, 214, 217, 218, 219, 220
 227, 228, 233, 234, 239, 240, 245, 246, 251, 252, 257, 258, 261, 262, 263, 264
 265, 266, 269, 270, 273, 274, 277, 278, 283, 284, 287, 288, 291, 292, 293, 294
 297, 298, 299, 300, 305, 306, 309, 310, 315, 316, 317, 318, 323, 324, 327, 328
*Nset, nset=Set-3
   1,   2,   3,   4,   5,   6,   7,   8,   9,  10,  11,  12,  13,  14,  15,  16
  17,  18,  19,  20,  21,  22,  23,  24,  25,  26,  27,  28,  29,  30,  31,  32
  33,  34,  35,  36,  37,  38,  39,  40,  41,  42,  43,  44,  45,  46,  47,  48
  49,  50,  51,  52,  53,  54,  55,  56,  57,  58,  59,  60,  61,  62,  63,  64
  65,  66,  67,  68,  69,  70,  71,  72,  73,  74,  75,  76,  77,  78,  79,  80
  81,  82,  83,  84,  85,  86,  87,  89,  91,  92,  94,  95,  97,  98, 101, 102
 104, 107, 110, 111, 113, 115, 117, 119, 122, 123, 125, 126, 129, 130, 131, 134
 136, 137, 138, 140, 142, 144, 146, 147, 149, 151, 152, 154, 155, 157, 158, 161
 163, 164, 165, 166, 169, 173, 174, 175, 178, 180, 181, 183, 185, 186, 188, 189
 191, 194, 195, 196, 198, 199, 201, 202, 204, 205, 207, 208, 210, 211, 213, 217
 219, 221, 223, 224, 226, 228, 231, 234, 235, 237, 239, 240, 243, 244, 246, 248
 249, 250, 251, 252, 253, 254, 255, 258, 259, 262, 263, 264, 265, 268, 269, 270
 271, 274, 275, 276, 277, 282, 283, 284, 285, 288, 289, 294, 295, 300, 301, 302
 303, 306, 307, 310, 311, 314, 315, 318, 319, 324, 325, 326, 327, 330, 331, 332
 333, 338, 339, 340, 341, 342, 343, 348, 349, 352, 353, 354, 355, 356, 357, 360
 361, 364, 365, 368, 369, 372, 373, 374, 375, 378, 379, 382, 383, 384, 385, 388
 389, 390, 391, 394, 395, 396, 397, 402, 403, 406, 407, 408, 409, 410, 411, 412
 413, 418, 419, 426, 427, 428, 429, 430, 431, 436, 437, 440, 441, 442, 443, 446
 447, 450, 451, 452, 453, 456, 457, 458, 459, 462, 463, 468, 469, 470, 471, 472
 473, 476, 477, 478, 479, 482, 483, 484, 485, 488, 489, 490, 491, 494, 495, 496
 497, 500, 501, 502, 503, 506, 507, 514, 515, 518, 519, 522, 523, 526, 527, 528
 529, 532, 533, 536, 537, 542, 543, 548, 549, 550, 551, 554, 555, 558, 559, 560
 561, 566, 567, 568, 569, 572, 573
*Elset, elset=Set-3
   1,   2,   3,   4,   5,   6,   7,   8,  11,  12,  15,  16,  17,  18,  21,  22
  23,  24,  27,  28,  29,  30,  35,  36,  37,  38,  41,  42,  47,  48,  53,  54
  55,  56,  59,  60,  63,  64,  67,  68,  71,  72,  77,  78,  79,  80,  83,  84
  85,  86,  91,  92,  93,  94,  95,  96, 101, 102, 105, 106, 107, 108, 109, 110
 113, 114, 117, 118, 121, 122, 125, 126, 127, 128, 131, 132, 135, 136, 137, 138
 141, 142, 143, 144, 147, 148, 149, 150, 155, 156, 159, 160, 161, 162, 163, 164
 165, 166, 171, 172, 179, 180, 181, 182, 183, 184, 189, 190, 193, 194, 195, 196
 199, 200, 203, 204, 205, 206, 209, 210, 211, 212, 215, 216, 221, 222, 223, 224
 225, 226, 229, 230, 231, 232, 235, 236, 237, 238, 241, 242, 243, 244, 247, 248
 249, 250, 253, 254, 255, 256, 259, 260, 267, 268, 271, 272, 275, 276, 279, 280
 281, 282, 285, 286, 289, 290, 295, 296, 301, 302, 303, 304, 307, 308, 311, 312
 313, 314, 319, 320, 321, 322, 325, 326
*Nset, nset=Set-4
   1,   3,   4,   5,   6,   7,   8,  13,  14,  15,  16,  18,  19,  20,  21,  22
  25,  26,  27,  28,  29,  32,  34,  35,  36,  37,  38,  39,  40,  44,  45,  46
  47,  48,  49,  50,  53,  54,  55,  56,  57,  59,  60,  61,  62,  67,  68,  69
  70,  71,  72,  74,  75,  76,  77,  78,  80,  81,  83,  88,  90,  96,  99, 100
 103, 105, 106, 108, 109, 114, 116, 118, 120, 121, 124, 127, 135, 139, 141, 143
 145, 148, 150, 156, 159, 160, 162, 167, 168, 172, 177, 182, 184, 187, 190, 192
 193, 197, 200, 206, 209, 212, 214, 215, 218, 220, 225, 227, 229, 230, 232, 233
 236, 241, 245, 256, 257, 260, 261, 272, 273, 278, 279, 280, 281, 286, 287, 290
 291, 292, 293, 296, 297, 298, 299, 308, 309, 312, 313, 316, 317, 320, 321, 322
 323, 328, 329, 334, 335, 350, 351, 358, 359, 362, 363, 366, 367, 370, 371, 376
 377, 380, 381, 392, 393, 398, 399, 400, 401, 404, 405, 414, 415, 416, 417, 424
 425, 434, 435, 444, 445, 448, 449, 454, 455, 460, 461, 464, 465, 466, 467, 474
 475, 480, 481, 492, 493, 498, 499, 504, 505, 508, 509, 510, 511, 516, 517, 520
 521, 530, 531, 534, 535, 538, 539, 540, 541, 544, 545, 546, 547, 552, 553, 562
 563, 570, 571
*Elset, elset=Set-4
   9,  10,  13,  14,  25,  26,  31,  32,  33,  34,  39,  40,  43,  44,  45,  46
  49,  50,  51,  52,  61,  62,  65,  66,  69,  70,  73,  74,  75,  76,  81,  82
  87,  88, 103, 104, 111, 112, 115, 116, 119, 120, 123, 124, 129, 130, 133, 134
 145, 146, 151, 152, 153, 154, 157, 158, 167, 168, 169, 170, 177, 178, 187, 188
 197, 198, 201, 202, 207, 208, 213, 214, 217, 218, 219, 220, 227, 228, 233, 234
 245, 246, 251, 252, 257, 258, 261, 262, 263, 264, 269, 270, 273, 274, 283, 284
 287, 288, 291, 292, 293, 294, 297, 298, 299, 300, 305, 306, 315, 316, 323, 324
*Nset, nset=Set-5
  10,  11,  17,  24,  30,  31,  42,  51,  52,  64,  65,  73,  82,  93, 112, 128
 132, 133, 153, 170, 179, 203, 216, 222, 238, 266, 267, 304, 305, 336, 337, 344
 345, 346, 347, 386, 387, 420, 421, 438, 439, 486, 487, 512, 513, 524, 525, 556
 557,
*Elset, elset=Set-5
  19,  20,  57,  58,  89,  90,  97,  98,  99, 100, 139, 140, 173, 174, 191, 192
 239, 240, 265, 266, 277, 278, 309, 310
*Nset, nset=Set-6
  36,  50,  77,  81,  82,  83, 176, 242, 247, 432, 433, 564, 565, 574, 575
*Elset, elset=Set-6
 185, 186, 317, 318, 327, 328
*Nset, nset=Set-7
  35,  51, 171, 422, 423
*Elset, elset=Set-7
 175, 176
*Nset, nset=Set-8
  10,  11,  14,  15,  16,  17,  18,  24,  29,  30,  31,  42,  45,  46,  50,  51
  52,  61,  64,  65,  68,  69,  73,  81,  97, 101, 125, 134, 146, 157, 178, 194
 198, 207, 221, 239, 274, 275, 282, 283, 330, 331, 348, 349, 372, 373, 394, 395
 436, 437, 468, 469, 476, 477, 494, 495, 522, 523, 558, 559
*Elset, elset=Set-8
  27,  28,  35,  36,  83,  84, 101, 102, 125, 126, 147, 148, 189, 190, 221, 222
 229, 230, 247, 248, 275, 276, 311, 312
*Nset, nset=Set-9
  10,  11,  14,  15,  16,  17,  18,  24,  29,  30,  31,  42,  45,  46,  50,  52
  61,  64,  65,  68,  69,  73,  81,  82,  98, 102, 126, 130, 131, 158, 169, 191
 208, 217, 231, 237, 276, 277, 284, 285, 332, 333, 340, 341, 342, 343, 396, 397
 418, 419, 462, 463, 496, 497, 514, 515, 542, 543, 554, 555
*Elset, elset=Set-9
  29,  30,  37,  38,  85,  86,  93,  94,  95,  96, 149, 150, 171, 172, 215, 216
 249, 250, 267, 268, 295, 296, 307, 308
*Nset, nset=Set-11
   3,   4,   5,   6,   7,  20,  21,  25,  26,  35,  36,  38,  39,  48,  49,  54
  55,  56,  57,  70,  71,  75,  76,  77,  86, 119, 122, 140, 142, 161, 165, 183
 185, 210, 226, 228, 252, 253, 318, 319, 324, 325, 360, 361, 364, 365, 402, 403
 410, 411, 446, 447, 450, 451, 500, 501, 532, 533, 536, 537
*Elset, elset=Set-11
   5,   6,  71,  72,  77,  78, 113, 114, 117, 118, 155, 156, 163, 164, 199, 200
 203, 204, 253, 254, 285, 286, 289, 290
*Nset, nset=Set-10
   3,   4,   5,   6,   7,  20,  21,  25,  26,  36,  38,  39,  48,  49,  54,  55
  56,  57,  70,  71,  75,  76,  77,  83,  87,  89, 107, 115, 149, 166, 175, 186
 199, 211, 240, 243, 254, 255, 258, 259, 294, 295, 310, 311, 378, 379, 412, 413
 430, 431, 452, 453, 478, 479, 502, 503, 560, 561, 566, 567
*Elset, elset=Set-10
   7,   8,  11,  12,  47,  48,  63,  64, 131, 132, 165, 166, 183, 184, 205, 206
 231, 232, 255, 256, 313, 314, 319, 320
*Nset, nset=Set-12
   1,   2,   3,   5,   6,   9,  12,  13,  20,  23,  25,  28,  32,  33,  37,  38
  41,  43,  44,  47,  49,  55,  57,  58,  60,  63,  66,  67,  71,  72,  76,  79
  80,  84,  85,  95, 113, 123, 129, 137, 144, 147, 155, 163, 164, 173, 180, 188
 196, 205, 213, 219, 223, 235, 246, 248, 249, 250, 251, 270, 271, 306, 307, 326
 327, 338, 339, 354, 355, 368, 369, 374, 375, 390, 391, 406, 407, 408, 409, 426
 427, 440, 441, 456, 457, 472, 473, 490, 491, 506, 507, 518, 519, 526, 527, 550
 551, 572, 573
*Elset, elset=Set-12
   1,   2,   3,   4,  23,  24,  59,  60,  79,  80,  91,  92, 107, 108, 121, 122
 127, 128, 143, 144, 159, 160, 161, 162, 179, 180, 193, 194, 209, 210, 225, 226
 243, 244, 259, 260, 271, 272, 279, 280, 303, 304, 325, 326
*Nset, nset=Set-13
   2,   8,   9,  10,  11,  12,  17,  19,  22,  23,  24,  27,  30,  31,  33,  34
  40,  41,  42,  43,  52,  53,  58,  59,  62,  63,  64,  65,  66,  73,  74,  78
  79,  91,  92,  94, 104, 110, 111, 117, 136, 138, 151, 152, 154, 174, 181, 189
 195, 201, 202, 204, 224, 234, 244, 262, 263, 264, 265, 268, 269, 288, 289, 300
 301, 302, 303, 314, 315, 352, 353, 356, 357, 382, 383, 384, 385, 388, 389, 428
 429, 442, 443, 458, 459, 470, 471, 482, 483, 484, 485, 488, 489, 528, 529, 548
 549, 568, 569
*Elset, elset=Set-13
  15,  16,  17,  18,  21,  22,  41,  42,  53,  54,  55,  56,  67,  68, 105, 106
 109, 110, 135, 136, 137, 138, 141, 142, 181, 182, 195, 196, 211, 212, 223, 224
 235, 236, 237, 238, 241, 242, 281, 282, 301, 302, 321, 322
** Region: (O_greda:Set-3), (Beam Orientation:Set-12)
*Elset, elset=_I1, internal
   1,   2,   3,   4,  23,  24,  59,  60,  79,  80,  91,  92, 107, 108, 121, 122
 127, 128, 143, 144, 159, 160, 161, 162, 179, 180, 193, 194, 209, 210, 225, 226
 243, 244, 259, 260, 271, 272, 279, 280, 303, 304, 325, 326
** Section: O_greda  Profile: O_profil
*Beam Section, elset=_I1, material=Steel, temperature=GRADIENTS, section=CIRC
r
-1.,1.,1.
** Region: (O_greda:Set-3), (Beam Orientation:Set-11)
*Elset, elset=_I2, internal
   5,   6,  71,  72,  77,  78, 113, 114, 117, 118, 155, 156, 163, 164, 199, 200
 203, 204, 253, 254, 285, 286, 289, 290
** Section: O_greda  Profile: O_profil
*Beam Section, elset=_I2, material=Steel, temperature=GRADIENTS, section=CIRC
r
-2.,0.,1.
** Region: (O_greda:Set-3), (Beam Orientation:Set-10)
*Elset, elset=_I3, internal
   7,   8,  11,  12,  47,  48,  63,  64, 131, 132, 165, 166, 183, 184, 205, 206
 231, 232, 255, 256, 313, 314, 319, 320
** Section: O_greda  Profile: O_profil
*Beam Section, elset=_I3, material=Steel, temperature=GRADIENTS, section=CIRC
r
0.,0.,1.
** Region: (I_greda:Set-2), (Beam Orientation:Set-4)
*Elset, elset=_I4, internal
   9,  10,  13,  14,  25,  26,  31,  32,  33,  34,  39,  40,  43,  44,  45,  46
  49,  50,  51,  52,  61,  62,  65,  66,  69,  70,  73,  74,  75,  76,  81,  82
  87,  88, 103, 104, 111, 112, 115, 116, 119, 120, 123, 124, 129, 130, 133, 134
 145, 146, 151, 152, 153, 154, 157, 158, 167, 168, 169, 170, 177, 178, 187, 188
 197, 198, 201, 202, 207, 208, 213, 214, 217, 218, 219, 220, 227, 228, 233, 234
 245, 246, 251, 252, 257, 258, 261, 262, 263, 264, 269, 270, 273, 274, 283, 284
 287, 288, 291, 292, 293, 294, 297, 298, 299, 300, 305, 306, 315, 316, 323, 324
** Section: I_greda  Profile: I_profil
*Beam Section, elset=_I4, material=Steel, temperature=GRADIENTS, section=I
0., h, b, b, t, t, t
0.,1.,0.
** Region: (O_greda:Set-3), (Beam Orientation:Set-13)
*Elset, elset=_I5, internal
  15,  16,  17,  18,  21,  22,  41,  42,  53,  54,  55,  56,  67,  68, 105, 106
 109, 110, 135, 136, 137, 138, 141, 142, 181, 182, 195, 196, 211, 212, 223, 224
 235, 236, 237, 238, 241, 242, 281, 282, 301, 302, 321, 322
** Section: O_greda  Profile: O_profil
*Beam Section, elset=_I5, material=Steel, temperature=GRADIENTS, section=CIRC
r
0.,-1.,1.
** Region: (I_greda:Set-2), (Beam Orientation:Set-5)
*Elset, elset=_I6, internal
  19,  20,  57,  58,  89,  90,  97,  98,  99, 100, 139, 140, 173, 174, 191, 192
 239, 240, 265, 266, 277, 278, 309, 310
** Section: I_greda  Profile: I_profil
*Beam Section, elset=_I6, material=Steel, temperature=GRADIENTS, section=I
0., h, b, b, t, t, t
0.,-1.,0.
** Region: (O_greda:Set-3), (Beam Orientation:Set-8)
*Elset, elset=_I7, internal
  27,  28,  35,  36,  83,  84, 101, 102, 125, 126, 147, 148, 189, 190, 221, 222
 229, 230, 247, 248, 275, 276, 311, 312
** Section: O_greda  Profile: O_profil
*Beam Section, elset=_I7, material=Steel, temperature=GRADIENTS, section=CIRC
r
-2.,0.,1.
** Region: (O_greda:Set-3), (Beam Orientation:Set-9)
*Elset, elset=_I8, internal
  29,  30,  37,  38,  85,  86,  93,  94,  95,  96, 149, 150, 171, 172, 215, 216
 249, 250, 267, 268, 295, 296, 307, 308
** Section: O_greda  Profile: O_profil
*Beam Section, elset=_I8, material=Steel, temperature=GRADIENTS, section=CIRC
r
0.,1.,0.
** Region: (I_greda:Set-2), (Beam Orientation:Set-7)
*Elset, elset=_I9, internal
 175, 176
** Section: I_greda  Profile: I_profil
*Beam Section, elset=_I9, material=Steel, temperature=GRADIENTS, section=I
0., h, b, b, t, t, t
-1.,0.,0.
** Region: (I_greda:Set-2), (Beam Orientation:Set-6)
*Elset, elset=_I10, internal
 185, 186, 317, 318, 327, 328
** Section: I_greda  Profile: I_profil
*Beam Section, elset=_I10, material=Steel, temperature=GRADIENTS, section=I
0., h, b, b, t, t, t
1.,0.,0.
*End Instance
**  
*Nset, nset=Set-1, instance=Crane-1
   3,   5,  17,  24,  73,  76,  82,  83, 120, 132, 238, 241, 242, 320, 321, 344
 345, 556, 557, 562, 563, 564, 565
*Elset, elset=Set-1, instance=Crane-1
  73,  74,  97,  98, 309, 310, 315, 316, 317, 318
*Nset, nset=Set-2, instance=Crane-1
 42, 49
*Nset, nset=Set-5, instance=Crane-1
   1,  10,  11,  13,  14,  15,  16,  17,  18,  24,  28,  29,  30,  31,  32,  37
  42,  44,  45,  46,  47,  50,  51,  52,  60,  61,  64,  65,  67,  68,  69,  72
  73,  80,  81,  82,  93,  96,  97,  98,  99, 100, 101, 102, 103, 112, 124, 125
 126, 127, 128, 130, 131, 132, 133, 134, 135, 145, 146, 153, 156, 157, 158, 159
 162, 168, 169, 170, 172, 178, 179, 191, 192, 194, 197, 198, 203, 206, 207, 208
 209, 215, 216, 217, 220, 221, 222, 231, 233, 236, 237, 239, 245, 266, 267, 272
 273, 274, 275, 276, 277, 278, 279, 280, 281, 282, 283, 284, 285, 286, 287, 304
 305, 328, 329, 330, 331, 332, 333, 334, 335, 336, 337, 340, 341, 342, 343, 344
 345, 346, 347, 348, 349, 350, 351, 370, 371, 372, 373, 386, 387, 392, 393, 394
 395, 396, 397, 398, 399, 404, 405, 416, 417, 418, 419, 420, 421, 424, 425, 436
 437, 438, 439, 462, 463, 464, 465, 468, 469, 474, 475, 476, 477, 486, 487, 492
 493, 494, 495, 496, 497, 498, 499, 510, 511, 512, 513, 514, 515, 520, 521, 522
 523, 524, 525, 542, 543, 546, 547, 552, 553, 554, 555, 558, 559, 570, 571
*Elset, elset=Set-5, instance=Crane-1
  19,  20,  25,  26,  27,  28,  29,  30,  31,  32,  33,  34,  35,  36,  37,  38
  39,  40,  57,  58,  81,  82,  83,  84,  85,  86,  87,  88,  89,  90,  93,  94
  95,  96,  97,  98,  99, 100, 101, 102, 103, 104, 123, 124, 125, 126, 139, 140
 145, 146, 147, 148, 149, 150, 151, 152, 157, 158, 169, 170, 171, 172, 173, 174
 177, 178, 189, 190, 191, 192, 215, 216, 217, 218, 221, 222, 227, 228, 229, 230
 239, 240, 245, 246, 247, 248, 249, 250, 251, 252, 263, 264, 265, 266, 267, 268
 273, 274, 275, 276, 277, 278, 295, 296, 299, 300, 305, 306, 307, 308, 311, 312
 323, 324
*Nset, nset=Set-6, instance=Crane-1
   1,  10,  11,  13,  14,  15,  16,  17,  18,  24,  28,  29,  30,  31,  32,  37
  42,  44,  45,  46,  47,  50,  51,  52,  60,  61,  64,  65,  67,  68,  69,  72
  73,  80,  81,  82,  93,  96,  97,  98,  99, 100, 101, 102, 103, 112, 124, 125
 126, 127, 128, 130, 131, 132, 133, 134, 135, 145, 146, 153, 156, 157, 158, 159
 162, 168, 169, 170, 172, 178, 179, 191, 192, 194, 197, 198, 203, 206, 207, 208
 209, 215, 216, 217, 220, 221, 222, 231, 233, 236, 237, 238, 239, 245, 266, 267
 272, 273, 274, 275, 276, 277, 278, 279, 280, 281, 282, 283, 284, 285, 286, 287
 304, 305, 328, 329, 330, 331, 332, 333, 334, 335, 336, 337, 340, 341, 342, 343
 344, 345, 346, 347, 348, 349, 350, 351, 370, 371, 372, 373, 386, 387, 392, 393
 394, 395, 396, 397, 398, 399, 404, 405, 416, 417, 418, 419, 420, 421, 424, 425
 436, 437, 438, 439, 462, 463, 464, 465, 468, 469, 474, 475, 476, 477, 486, 487
 492, 493, 494, 495, 496, 497, 498, 499, 510, 511, 512, 513, 514, 515, 520, 521
 522, 523, 524, 525, 542, 543, 546, 547, 552, 553, 554, 555, 556, 557, 558, 559
 570, 571
*Elset, elset=Set-6, instance=Crane-1
  19,  20,  25,  26,  27,  28,  29,  30,  31,  32,  33,  34,  35,  36,  37,  38
  39,  40,  57,  58,  81,  82,  83,  84,  85,  86,  87,  88,  89,  90,  93,  94
  95,  96,  97,  98,  99, 100, 101, 102, 103, 104, 123, 124, 125, 126, 139, 140
 145, 146, 147, 148, 149, 150, 151, 152, 157, 158, 169, 170, 171, 172, 173, 174
 177, 178, 189, 190, 191, 192, 215, 216, 217, 218, 221, 222, 227, 228, 229, 230
 239, 240, 245, 246, 247, 248, 249, 250, 251, 252, 263, 264, 265, 266, 267, 268
 273, 274, 275, 276, 277, 278, 295, 296, 299, 300, 305, 306, 307, 308, 309, 310
 311, 312, 323, 324
*Nset, nset=Set-7, instance=Crane-1
   1,   2,   9,  10,  11,  12,  13,  14,  15,  16,  17,  18,  23,  24,  28,  29
  30,  31,  32,  33,  37,  41,  42,  43,  44,  45,  46,  47,  50,  51,  52,  58
  60,  61,  63,  64,  65,  66,  67,  68,  69,  72,  73,  79,  80,  81,  82,  84
  92,  93,  94,  95,  96,  97,  98,  99, 100, 101, 102, 103, 111, 112, 123, 124
 125, 126, 127, 128, 130, 131, 132, 133, 134, 135, 136, 144, 145, 146, 152, 153
 154, 155, 156, 157, 158, 159, 162, 163, 168, 169, 170, 172, 173, 174, 178, 179
 191, 192, 194, 195, 196, 197, 198, 202, 203, 204, 205, 206, 207, 208, 209, 215
 216, 217, 219, 220, 221, 222, 231, 233, 234, 235, 236, 237, 238, 239, 245, 248
 249, 264, 265, 266, 267, 268, 269, 270, 271, 272, 273, 274, 275, 276, 277, 278
 279, 280, 281, 282, 283, 284, 285, 286, 287, 302, 303, 304, 305, 326, 327, 328
 329, 330, 331, 332, 333, 334, 335, 336, 337, 340, 341, 342, 343, 344, 345, 346
 347, 348, 349, 350, 351, 352, 353, 368, 369, 370, 371, 372, 373, 384, 385, 386
 387, 388, 389, 390, 391, 392, 393, 394, 395, 396, 397, 398, 399, 404, 405, 406
 407, 416, 417, 418, 419, 420, 421, 424, 425, 426, 427, 428, 429, 436, 437, 438
 439, 462, 463, 464, 465, 468, 469, 470, 471, 472, 473, 474, 475, 476, 477, 484
 485, 486, 487, 488, 489, 490, 491, 492, 493, 494, 495, 496, 497, 498, 499, 510
 511, 512, 513, 514, 515, 518, 519, 520, 521, 522, 523, 524, 525, 542, 543, 546
 547, 548, 549, 550, 551, 552, 553, 554, 555, 556, 557, 558, 559, 570, 571
*Elset, elset=Set-7, instance=Crane-1
   1,   2,  17,  18,  19,  20,  21,  22,  23,  24,  25,  26,  27,  28,  29,  30
  31,  32,  33,  34,  35,  36,  37,  38,  39,  40,  55,  56,  57,  58,  79,  80
  81,  82,  83,  84,  85,  86,  87,  88,  89,  90,  93,  94,  95,  96,  97,  98
  99, 100, 101, 102, 103, 104, 105, 106, 121, 122, 123, 124, 125, 126, 137, 138
 139, 140, 141, 142, 143, 144, 145, 146, 147, 148, 149, 150, 151, 152, 157, 158
 159, 160, 169, 170, 171, 172, 173, 174, 177, 178, 179, 180, 181, 182, 189, 190
 191, 192, 215, 216, 217, 218, 221, 222, 223, 224, 225, 226, 227, 228, 229, 230
 237, 238, 239, 240, 241, 242, 243, 244, 245, 246, 247, 248, 249, 250, 251, 252
 263, 264, 265, 266, 267, 268, 271, 272, 273, 274, 275, 276, 277, 278, 295, 296
 299, 300, 301, 302, 303, 304, 305, 306, 307, 308, 309, 310, 311, 312, 323, 324
*Nset, nset=Set-8, instance=Crane-1
 42,
*Nset, nset=Set-9, instance=Crane-1
 49,
*Nset, nset=Set-10, instance=Crane-1
 42,
*End Assembly
** 
** MATERIALS
** 
*Material, name=Steel
*Density
7850.,
*Elastic
 2.1e+11, 0.3
** ----------------------------------------------------------------
** 
** STEP: Step-1
** 
*Step, name=Step-1, nlgeom=NO
*Static
1., 1., 1e-05, 1.
** 
** BOUNDARY CONDITIONS
** 
** Name: Ukljestenja Type: Symmetry/Antisymmetry/Encastre
*Boundary
Set-1, ENCASTRE
** 
** LOADS
** 
** Name: Tezina   Type: Gravity
*Dload
, GRAV, 9.81, 0., 0., -1.
** Name: sila_kuka1   Type: Concentrated force
*Cload
Set-9, 3, -25000.
** Name: sila_kuka2   Type: Concentrated force
*Cload
Set-10, 3, -25000.
** Name: vjetar   Type: Line load
*Dload
Set-7, PY, 6.25
** 
** OUTPUT REQUESTS
** 
*Restart, write, frequency=0
** 
** FIELD OUTPUT: F-Output-1
** 
*Output, field
*Node Output
CF, RF, U
*Element Output, directions=YES
LE, MISES, MISESMAX, PE, PEEQ, PEMAG, S
*Contact Output
CDISP, CSTRESS
** 
** HISTORY OUTPUT: H-Output-1
** 
*Output, history, variable=PRESELECT
*End Step
